Circuit: * C:\Users\gallo.HOTMETAL\Documents\Pitt Spring 2022\SailBot 22\PCB_2021-2022\Spice Simz\BMS1.asc

Direct Newton iteration for .op point succeeded.

Date: Mon Apr 11 18:28:17 2022
Total elapsed time: 0.105 seconds.

tnom = 27
temp = 27
method = modified trap
totiter = 577
traniter = 529
tranpoints = 198
accept = 181
rejected = 17
matrix size = 144
fillins = 229
solver = Normal
Thread vector: 8.1/5.4[3] 3.5/1.8[3] 1.8/0.5[3] 0.5/1.1[1]  2592/500
Matrix Compiler1: 28.29 KB object code size  3.5/1.8/[1.0]
Matrix Compiler2: 17.89 KB object code size  1.3/1.6/[0.7]

